# created with PyMOL 2.3.0
@<TRIPOS>MOLECULE
lig_CAT-13d
9 9 1                   
SMALL
USER_CHARGES
@<TRIPOS>ATOM
1	   C	14.960	-2.710	-0.930	 R	1	UNK0	0.000	
2	   C	14.580	-5.130	-1.100	C.3	1	UNK0	0.000	
3	   H	14.410	-5.880	-1.860	 H	1	UNK0	0.000	
4	   H	13.780	-5.030	-0.370	 H	1	UNK0	0.000	
5	   C	15.330	-3.890	-1.500	C.3	1	UNK0	0.000	
6	   H	15.660	-3.800	-2.520	 H	1	UNK0	0.000	
7	   C	15.990	-4.920	-0.620	C.3	1	UNK0	0.000	
8	   H	16.140	-4.670	0.420	 H	1	UNK0	0.000	
9	   H	16.770	-5.530	-1.060	 H	1	UNK0	0.000	
@<TRIPOS>BOND
1 1 5 1
2 2 3 1
3 2 4 1
4 2 5 1
5 2 7 1
6 5 6 1
7 5 7 1
8 7 8 1
9 7 9 1
@<TRIPOS>SUBSTRUCTURE
1	UNK0	1	GROUP	1 ****	UNK
