# created with PyMOL 2.3.0
@<TRIPOS>MOLECULE
lig_CAT-13m
10 10 1                 
SMALL
USER_CHARGES
@<TRIPOS>ATOM
1	   C	14.960	-2.710	-0.930	 R	1	UNK0	0.000	
2	   C	15.240	-4.130	-1.430	C.2	1	UNK0	0.000	
3	   C	16.370	-4.820	-1.030	C.2	1	UNK0	0.000	
4	   N	16.600	-6.130	-1.440	N.2	1	UNK0	0.000	
5	   C	15.710	-6.760	-2.280	C.2	1	UNK0	0.000	
6	   N	14.590	-6.080	-2.720	N.2	1	UNK0	0.000	
7	   C	14.350	-4.780	-2.310	C.2	1	UNK0	0.000	
8	   H	13.470	-4.250	-2.670	 H	1	UNK0	0.000	
9	   H	15.880	-7.790	-2.600	 H	1	UNK0	0.000	
10	   H	17.090	-4.330	-0.370	 H	1	UNK0	0.000	
@<TRIPOS>BOND
1 1 2 1
2 2 3 2
3 2 7 1
4 3 4 1
5 3 10 1
6 4 5 2
7 5 6 1
8 5 9 1
9 6 7 2
10 7 8 1
@<TRIPOS>SUBSTRUCTURE
1	UNK0	1	GROUP	1 ****	UNK
