# created with PyMOL 2.3.0
@<TRIPOS>MOLECULE
lig_CAT-13n
10 10 1                 
SMALL
USER_CHARGES
@<TRIPOS>ATOM
1	   C	14.960	-2.710	-0.930	 R	1	UNK0	0.000	
2	   C	15.240	-4.130	-1.430	C.2	1	UNK0	0.000	
3	   N	16.370	-4.820	-1.030	N.2	1	UNK0	0.000	
4	   C	16.600	-6.130	-1.440	C.2	1	UNK0	0.000	
5	   C	15.710	-6.760	-2.280	C.2	1	UNK0	0.000	
6	   C	14.590	-6.080	-2.720	C.2	1	UNK0	0.000	
7	   N	14.350	-4.780	-2.310	N.2	1	UNK0	0.000	
8	   H	17.490	-6.660	-1.110	 H	1	UNK0	0.000	
9	   H	13.880	-6.570	-3.390	 H	1	UNK0	0.000	
10	   H	15.880	-7.790	-2.600	 H	1	UNK0	0.000	
@<TRIPOS>BOND
1 1 2 1
2 2 3 2
3 2 7 1
4 3 4 1
5 4 5 2
6 4 8 1
7 5 6 1
8 5 10 1
9 6 7 2
10 6 9 1
@<TRIPOS>SUBSTRUCTURE
1	UNK0	1	GROUP	1 ****	UNK
