# created with PyMOL 2.3.0
@<TRIPOS>MOLECULE
lig_CAT-13f
15 15 1                 
SMALL
USER_CHARGES
@<TRIPOS>ATOM
1	   C	14.960	-2.710	-0.930	 R	1	UNK0	0.000	
2	   C	16.760	-5.810	-1.380	C.3	1	UNK0	0.000	
3	   H	17.380	-6.340	-0.650	 H	1	UNK0	0.000	
4	   H	17.190	-6.000	-2.370	 H	1	UNK0	0.000	
5	   C	16.730	-4.320	-1.090	C.3	1	UNK0	0.000	
6	   H	17.500	-3.770	-1.630	 H	1	UNK0	0.000	
7	   H	16.870	-4.140	-0.020	 H	1	UNK0	0.000	
8	   C	15.330	-3.890	-1.500	C.3	1	UNK0	0.000	
9	   H	15.260	-3.780	-2.590	 H	1	UNK0	0.000	
10	   C	14.470	-5.050	-1.030	C.3	1	UNK0	0.000	
11	   H	13.490	-5.080	-1.520	 H	1	UNK0	0.000	
12	   H	14.300	-4.980	0.050	 H	1	UNK0	0.000	
13	   C	15.310	-6.290	-1.340	C.3	1	UNK0	0.000	
14	   H	15.030	-6.700	-2.310	 H	1	UNK0	0.000	
15	   H	15.160	-7.070	-0.590	 H	1	UNK0	0.000	
@<TRIPOS>BOND
1 1 8 1
2 2 3 1
3 2 4 1
4 2 5 1
5 2 13 1
6 5 6 1
7 5 7 1
8 5 8 1
9 8 9 1
10 8 10 1
11 10 11 1
12 10 12 1
13 10 13 1
14 13 14 1
15 13 15 1
@<TRIPOS>SUBSTRUCTURE
1	UNK0	1	GROUP	1 ****	UNK
