# created with PyMOL 2.3.0
@<TRIPOS>MOLECULE
lig_CAT-13h
12 12 1                 
SMALL
USER_CHARGES
@<TRIPOS>ATOM
1	   C	14.960	-2.710	-0.930	 R	1	UNK0	0.000	
2	   C	15.330	-3.890	-1.500	C.3	1	UNK0	0.000	
3	   C	14.390	-4.220	-2.520	C.3	1	UNK0	0.000	
4	   H	14.690	-5.170	-2.980	 H	1	UNK0	0.000	
5	   H	14.390	-3.440	-3.280	 H	1	UNK0	0.000	
6	   H	13.400	-4.320	-2.090	 H	1	UNK0	0.000	
7	   C	16.790	-4.190	-1.630	C.3	1	UNK0	0.000	
8	   H	17.530	-3.470	-1.290	 H	1	UNK0	0.000	
9	   H	17.160	-4.700	-2.520	 H	1	UNK0	0.000	
10	   C	15.960	-4.940	-0.630	C.3	1	UNK0	0.000	
11	   H	15.730	-5.990	-0.790	 H	1	UNK0	0.000	
12	   H	16.090	-4.750	0.440	 H	1	UNK0	0.000	
@<TRIPOS>BOND
1 1 2 1
2 2 3 1
3 2 7 1
4 2 10 1
5 3 4 1
6 3 5 1
7 3 6 1
8 7 8 1
9 7 9 1
10 7 10 1
11 10 11 1
12 10 12 1
@<TRIPOS>SUBSTRUCTURE
1	UNK0	1	GROUP	1 ****	UNK
