# created with PyMOL 2.3.0
@<TRIPOS>MOLECULE
lig_CAT-13g
17 17 1                 
SMALL
USER_CHARGES
@<TRIPOS>ATOM
1	   C	14.960	-2.710	-0.930	 R	1	UNK0	0.000	
2	   C	16.200	-6.690	-1.220	C.3	1	UNK0	0.000	
3	   H	16.500	-7.640	-1.680	 H	1	UNK0	0.000	
4	   H	16.230	-6.840	-0.130	 H	1	UNK0	0.000	
5	   C	14.770	-6.350	-1.630	C.3	1	UNK0	0.000	
6	   H	14.080	-7.120	-1.270	 H	1	UNK0	0.000	
7	   H	14.700	-6.350	-2.730	 H	1	UNK0	0.000	
8	   C	14.340	-4.980	-1.100	C.3	1	UNK0	0.000	
9	   H	14.270	-5.030	-0.000	 H	1	UNK0	0.000	
10	   H	13.340	-4.740	-1.470	 H	1	UNK0	0.000	
11	   C	15.330	-3.890	-1.500	C.3	1	UNK0	0.000	
12	   C	16.750	-4.230	-1.080	C.3	1	UNK0	0.000	
13	   H	16.820	-4.240	0.010	 H	1	UNK0	0.000	
14	   H	17.440	-3.460	-1.450	 H	1	UNK0	0.000	
15	   C	17.180	-5.600	-1.620	C.3	1	UNK0	0.000	
16	   H	18.180	-5.850	-1.240	 H	1	UNK0	0.000	
17	   H	17.250	-5.550	-2.710	 H	1	UNK0	0.000	
@<TRIPOS>BOND
1 1 11 1
2 2 3 1
3 2 4 1
4 2 5 1
5 2 15 1
6 5 6 1
7 5 7 1
8 5 8 1
9 8 9 1
10 8 10 1
11 8 11 1
12 11 12 1
13 12 13 1
14 12 14 1
15 12 15 1
16 15 16 1
17 15 17 1
@<TRIPOS>SUBSTRUCTURE
1	UNK0	1	GROUP	1 ****	UNK
