# created with PyMOL 2.3.0
@<TRIPOS>MOLECULE
lig_CAT-13o
8 8 1                   
SMALL
USER_CHARGES
@<TRIPOS>ATOM
1	   C	14.940	-2.740	-0.920	 R	1	UNK0	0.000	
2	   C	15.240	-5.820	-2.790	C.2	1	UNK0	0.000	
3	   H	14.930	-6.570	-3.500	 H	1	UNK0	0.000	
4	   N	14.530	-4.630	-2.460	N.2	1	UNK0	0.000	
5	   C	15.280	-3.930	-1.490	C.2	1	UNK0	0.000	
6	   S	16.450	-4.680	-1.200	S.3	1	UNK0	0.000	
7	   C	16.430	-5.850	-2.010	C.2	1	UNK0	0.000	
8	   H	17.180	-6.630	-2.030	 H	1	UNK0	0.000	
@<TRIPOS>BOND
1 1 5 1
2 2 3 1
3 2 4 1
4 2 7 2
5 4 5 2
6 5 6 1
7 6 7 1
8 7 8 1
@<TRIPOS>SUBSTRUCTURE
1	UNK0	1	GROUP	1 ****	UNK
