# created with PyMOL 2.3.0
@<TRIPOS>MOLECULE
lig_CAT-13i
12 12 1                 
SMALL
USER_CHARGES
@<TRIPOS>ATOM
1	   C	14.960	-2.710	-0.930	 R	1	UNK0	0.000	
2	   C	15.350	-3.950	-1.520	C.3	1	UNK0	0.000	
3	   H	16.430	-4.020	-1.540	 H	1	UNK0	0.000	
4	   H	14.960	-4.000	-2.540	 H	1	UNK0	0.000	
5	   C	14.760	-6.330	-1.460	C.3	1	UNK0	0.000	
6	   H	14.940	-7.200	-0.840	 H	1	UNK0	0.000	
7	   H	15.110	-6.420	-2.480	 H	1	UNK0	0.000	
8	   C	14.840	-4.980	-0.800	C.3	1	UNK0	0.000	
9	   H	15.070	-4.940	0.260	 H	1	UNK0	0.000	
10	   C	13.510	-5.540	-1.210	C.3	1	UNK0	0.000	
11	   H	13.010	-5.100	-2.070	 H	1	UNK0	0.000	
12	   H	12.840	-5.880	-0.430	 H	1	UNK0	0.000	
@<TRIPOS>BOND
1 1 2 1
2 2 3 1
3 2 4 1
4 2 8 1
5 5 6 1
6 5 7 1
7 5 8 1
8 5 10 1
9 8 9 1
10 8 10 1
11 10 11 1
12 10 12 1
@<TRIPOS>SUBSTRUCTURE
1	UNK0	1	GROUP	1 ****	UNK
