# created with PyMOL 2.3.0
@<TRIPOS>MOLECULE
lig_CAT-13k
11 11 1                 
SMALL
USER_CHARGES
@<TRIPOS>ATOM
1	   C	14.960	-2.710	-0.930	 R	1	UNK0	0.000	
2	   C	15.240	-4.130	-1.430	C.2	1	UNK0	0.000	
3	   C	16.370	-4.820	-1.030	C.2	1	UNK0	0.000	
4	   H	17.080	-4.340	-0.380	 H	1	UNK0	0.000	
5	   N	16.600	-6.130	-1.440	N.2	1	UNK0	0.000	
6	   C	15.710	-6.760	-2.280	C.2	1	UNK0	0.000	
7	   C	14.590	-6.080	-2.720	C.2	1	UNK0	0.000	
8	   C	14.350	-4.780	-2.310	C.2	1	UNK0	0.000	
9	   H	13.480	-4.250	-2.660	 H	1	UNK0	0.000	
10	   H	13.880	-6.570	-3.390	 H	1	UNK0	0.000	
11	   H	15.880	-7.790	-2.600	 H	1	UNK0	0.000	
@<TRIPOS>BOND
1 1 2 1
2 2 3 2
3 2 8 1
4 3 4 1
5 3 5 1
6 5 6 2
7 6 7 1
8 6 11 1
9 7 8 2
10 7 10 1
11 8 9 1
@<TRIPOS>SUBSTRUCTURE
1	UNK0	1	GROUP	1 ****	UNK
