# created with PyMOL 2.3.0
@<TRIPOS>MOLECULE
lig_CAT-13c
10 9 1                  
SMALL
USER_CHARGES
@<TRIPOS>ATOM
1	   R	14.960	-2.710	-0.930	 R	1	UNK0	0.000	
2	   C	15.350	-3.950	-1.520	C.3	1	UNK0	0.000	
3	   C	15.590	-4.910	-0.500	C.3	1	UNK0	0.000	
4	   H	16.390	-4.560	0.150	 H	1	UNK0	0.000	
5	   H	15.890	-5.860	-0.960	 H	1	UNK0	0.000	
6	   H	14.690	-5.060	0.080	 H	1	UNK0	0.000	
7	   H	16.250	-3.800	-2.110	 H	1	UNK0	0.000	
8	   C	14.300	-4.410	-2.380	C.3	1	UNK0	0.000	
9	   H	14.590	-5.360	-2.830	 H	1	UNK0	0.000	
10	   H	14.110	-3.680	-3.160	 H	1	UNK0	0.000	
@<TRIPOS>BOND
1 1 2 1
2 2 3 1
3 2 7 1
4 2 8 1
5 3 4 1
6 3 5 1
7 3 6 1
8 8 9 1
9 8 10 1
@<TRIPOS>SUBSTRUCTURE
1	UNK0	1	GROUP	1 ****	UNK
