# created with PyMOL 2.3.0
@<TRIPOS>MOLECULE
lig_CAT-13e
11 11 1                 
SMALL
USER_CHARGES
@<TRIPOS>ATOM
1	   C	14.960	-2.710	-0.930	 R	1	UNK0	0.000	
2	   C	14.600	-5.410	-0.210	C.3	1	UNK0	0.000	
3	   H	14.530	-6.490	-0.050	 H	1	UNK0	0.000	
4	   H	14.090	-4.900	0.610	 H	1	UNK0	0.000	
5	   C	14.180	-4.910	-1.610	C.3	1	UNK0	0.000	
6	   H	13.170	-4.500	-1.680	 H	1	UNK0	0.000	
7	   H	14.320	-5.650	-2.400	 H	1	UNK0	0.000	
8	   C	15.330	-3.890	-1.500	C.3	1	UNK0	0.000	
9	   C	16.010	-4.870	-0.520	C.3	1	UNK0	0.000	
10	   H	16.530	-4.410	0.320	 H	1	UNK0	0.000	
11	   H	16.670	-5.590	-1.000	 H	1	UNK0	0.000	
@<TRIPOS>BOND
1 1 8 1
2 2 3 1
3 2 4 1
4 2 5 1
5 2 9 1
6 5 6 1
7 5 7 1
8 5 8 1
9 8 9 1
10 9 10 1
11 9 11 1
@<TRIPOS>SUBSTRUCTURE
1	UNK0	1	GROUP	1 ****	UNK
