# created with PyMOL 2.3.0
@<TRIPOS>MOLECULE
lig_CAT-17h
9 9 1                   
SMALL
USER_CHARGES
@<TRIPOS>ATOM
1	   C	14.960	-2.710	-0.930	 R	1	UNK0	0.000	
2	   C	15.330	-5.120	-0.630	C.3	1	UNK0	0.000	
3	   H	15.030	-6.060	-1.090	 H	1	UNK0	0.000	
4	   H	15.030	-5.010	0.400	 H	1	UNK0	0.000	
5	   C	15.330	-3.890	-1.500	C.3	1	UNK0	0.000	
6	   H	15.030	-4.000	-2.540	 H	1	UNK0	0.000	
7	   C	16.630	-4.500	-1.060	C.3	1	UNK0	0.000	
8	   H	17.210	-3.980	-0.320	 H	1	UNK0	0.000	
9	   H	17.220	-5.030	-1.810	 H	1	UNK0	0.000	
@<TRIPOS>BOND
1 1 5 1
2 2 3 1
3 2 4 1
4 2 5 1
5 2 7 1
6 5 6 1
7 5 7 1
8 7 8 1
9 7 9 1
@<TRIPOS>SUBSTRUCTURE
1	UNK0	1	GROUP	1 ****	UNK
